Version 4
SHEET 1 880 680
WIRE -64 80 -96 80
WIRE 192 80 -64 80
WIRE 368 80 192 80
WIRE -96 112 -96 80
WIRE 192 112 192 80
WIRE 48 128 32 128
WIRE 160 128 112 128
WIRE 288 128 240 128
WIRE 368 128 288 128
WIRE 48 144 32 144
WIRE 160 160 112 160
WIRE 288 160 240 160
WIRE 304 160 288 160
WIRE 304 176 304 160
WIRE 368 176 368 128
WIRE -288 240 -288 192
WIRE -192 240 -192 192
WIRE -192 240 -288 240
WIRE -96 240 -96 192
WIRE -96 240 -192 240
WIRE 192 240 192 176
WIRE 192 240 -96 240
WIRE 304 240 192 240
WIRE 368 240 304 240
WIRE -96 256 -96 240
FLAG -96 256 0
FLAG -64 80 VDDA1V8
FLAG -192 112 Vind
IOPIN -192 112 Out
FLAG 32 128 ind
IOPIN 32 128 In
FLAG -288 112 Vincm
IOPIN -288 112 Out
FLAG 32 144 Vincm
IOPIN 32 144 In
FLAG 288 160 Voutp
FLAG 288 128 Voutn
FLAG 512 128 Voutp
FLAG 512 176 Voutn
FLAG 544 192 0
FLAG 544 112 Voutd
IOPIN 544 112 Out
FLAG 656 176 Voutd
IOPIN 656 176 In
FLAG 656 128 Vind
IOPIN 656 128 In
FLAG 688 192 0
FLAG 688 112 ind
IOPIN 688 112 Out
SYMBOL ping-pong-ota 208 144 R0
SYMATTR InstName X1
SYMBOL voltage -96 96 R0
WINDOW 3 24 96 Invisible 2
SYMATTR Value {VDDA}
SYMATTR InstName V1
SYMBOL voltage -192 96 R0
WINDOW 3 24 96 Invisible 2
WINDOW 123 0 0 Left 0
WINDOW 39 0 0 Left 0
SYMATTR Value PULSE({-Vmax} {Vmax} 0 1n 1n 9n 20n)
SYMATTR InstName V2
SYMBOL cap 320 240 R180
WINDOW 0 24 56 Left 2
WINDOW 3 24 8 Invisible 2
SYMATTR InstName C1
SYMATTR Value {Cload}
SYMBOL cap 384 240 R180
WINDOW 0 24 56 Left 2
WINDOW 3 24 8 Invisible 2
SYMATTR InstName C2
SYMATTR Value {Cload}
SYMBOL diff2se 80 144 R0
SYMATTR InstName X2
SYMBOL voltage -288 96 R0
WINDOW 3 24 96 Invisible 2
WINDOW 123 0 0 Left 0
WINDOW 39 0 0 Left 0
SYMATTR Value {Vincm}
SYMATTR InstName V3
SYMBOL e 544 96 R0
WINDOW 3 23 80 Invisible 2
SYMATTR Value 1
SYMATTR InstName E1
SYMBOL e 688 96 R0
WINDOW 3 23 80 Invisible 2
SYMATTR Value 1
SYMATTR InstName E2
TEXT -488 88 Left 2 !.param Cload 500f
TEXT -488 72 Left 2 !.param VDDA 1.8
TEXT -488 56 Left 2 !.param Vincm {VDDA/2}
TEXT -488 104 Left 2 !.tran 0 4u 3.9u
TEXT -488 40 Left 2 ;Parameters
TEXT -296 40 Left 2 ;Stimuli
TEXT 184 56 Left 2 ;DUT
TEXT -488 144 Left 2 !.param Vmax 0.5
RECTANGLE Normal 144 272 -320 64 2
RECTANGLE Normal 128 272 -320 64 2
